27


Xe 	 -1.0170902066393839 	 1.4020630050935565 	 0.3969512922039166
Xe 	 1.4624516486761818 	 0.9860277458253889 	 4.155076977804286
Xe 	 -0.914066229598818 	 0.9494101278060012 	 8.001614998829348
Xe 	 1.6314340316372788 	 4.783432078911334 	 1.6397276054626713
Xe 	 -0.8009387528729066 	 4.710599747293512 	 5.419707995260322
Xe 	 1.448682534148393 	 4.522805053413413 	 9.491066587056295
Xe 	 0.26364509006844167 	 7.914374273706842 	 -1.2821454403397343
Xe 	 0.21219388754506863 	 8.683756088593153 	 3.2649027903545242
Xe 	 0.16758470183833196 	 8.475546843574264 	 7.729726380625494
Xe 	 3.6651332302610298 	 1.002622882361647 	 0.19082096437644927
Xe 	 5.945682802786667 	 0.7717435492889956 	 4.176121294357731
Xe 	 3.6641079034710633 	 0.7844780995730092 	 8.094847820010312
Xe 	 6.005779148797687 	 4.555276397564402 	 1.7446561154938809
Xe 	 3.7240862883888255 	 4.635687838253561 	 5.630098546373922
Xe 	 6.013608410660067 	 4.345377818317015 	 9.549830821376254
Xe 	 4.1636836068653595 	 8.564249682331363 	 1.0281953928847405
Xe 	 4.1741340732421035 	 9.011641106733883 	 5.548266844688139
Xe 	 3.993759641067729 	 8.304416456125487 	 10.052593434749625
Xe 	 8.285825212615574 	 1.020390849793514 	 0.23699836782558342
Xe 	 10.541762791739481 	 0.8435849423789633 	 4.204063438693902
Xe 	 8.231104015839078 	 0.6520150862081537 	 8.142216160146038
Xe 	 10.53929286328383 	 4.73233692368421 	 1.752254957420554
Xe 	 8.181999369430216 	 4.388792897538702 	 5.5926944551394495
Xe 	 10.567270803781954 	 4.486045066986843 	 9.347835603057478
Xe 	 8.035021438247213 	 7.296195158900262 	 -1.1451298723127659
Xe 	 8.075498946802957 	 8.281162163147757 	 3.3526034586048206
Xe 	 7.995052747916523 	 8.152668116594684 	 7.941103009856757
