64
Frame 0
Cl 	 0.08477241227118237 	 0.08477241227118092 	 0.08477241227117989
Na 	 0.034252026011495094 	 0.03425202601149337 	 2.82172698873312
Cl 	 -0.011332287200594099 	 -0.01133228720059577 	 5.610191840047465
Na 	 0.14853975042096118 	 0.14853975042095988 	 8.311460249579039
Na 	 0.03425202601149523 	 2.8217269887331193 	 0.03425202601149341
Cl 	 -0.07181847818334007 	 2.838651535567826 	 2.8386515355678252
Na 	 -0.04488623136298127 	 2.8267301118468198 	 5.633269888153178
Cl 	 -0.011332287200595146 	 2.8498081599525324 	 8.471332287200594
Cl 	 -0.011332287200594425 	 5.610191840047466 	 -0.011332287200594923
Na 	 -0.04488623136298085 	 5.633269888153178 	 2.82673011184682
Cl 	 -0.07181847818334015 	 5.621348464432173 	 5.621348464432173
Na 	 0.0342520260114933 	 5.638273011266878 	 8.425747973988505
Na 	 0.14853975042096204 	 8.311460249579039 	 0.14853975042096113
Cl 	 -0.01133228720059467 	 8.471332287200594 	 2.8498081599525333
Na 	 0.034252026011493776 	 8.425747973988504 	 5.638273011266879
Cl 	 0.08477241227118035 	 8.375227587728817 	 8.37522758772882
Na 	 2.8217269887331216 	 0.03425202601149404 	 0.03425202601149392
Cl 	 2.838651535567828 	 -0.0718184781833413 	 2.8386515355678252
Na 	 2.8267301118468207 	 -0.04488623136298253 	 5.633269888153178
Cl 	 2.849808159952534 	 -0.01133228720059544 	 8.471332287200594
Cl 	 2.8386515355678283 	 2.838651535567825 	 -0.07181847818334099
Na 	 2.8047133867298326 	 2.8047133867298313 	 2.8047133867298313
Cl 	 2.8119562791404364 	 2.8119562791404347 	 5.6480437208595635
Na 	 2.82673011184682 	 2.8267301118468198 	 8.504886231362981
Na 	 2.826730111846822 	 5.633269888153178 	 -0.04488623136298144
Cl 	 2.8119562791404356 	 5.6480437208595635 	 2.8119562791404364
Na 	 2.8047133867298313 	 5.655286613270167 	 5.655286613270167
Cl 	 2.838651535567826 	 5.621348464432173 	 8.53181847818334
Cl 	 2.8498081599525333 	 8.471332287200594 	 -0.011332287200594829
Na 	 2.8267301118468207 	 8.504886231362981 	 2.8267301118468207
Cl 	 2.838651535567826 	 8.53181847818334 	 5.621348464432174
Na 	 2.8217269887331193 	 8.425747973988504 	 8.425747973988505
Cl 	 5.610191840047467 	 -0.011332287200594926 	 -0.011332287200594966
Na 	 5.63326988815318 	 -0.0448862313629821 	 2.82673011184682
Cl 	 5.621348464432174 	 -0.071818478183341 	 5.621348464432172
Na 	 5.638273011266879 	 0.03425202601149359 	 8.425747973988505
Na 	 5.63326988815318 	 2.8267301118468207 	 -0.04488623136298217
Cl 	 5.648043720859565 	 2.8119562791404347 	 2.811956279140435
Na 	 5.655286613270167 	 2.804713386729831 	 5.655286613270167
Cl 	 5.621348464432174 	 2.838651535567826 	 8.53181847818334
Cl 	 5.621348464432176 	 5.621348464432172 	 -0.0718184781833406
Na 	 5.655286613270168 	 5.655286613270167 	 2.8047133867298313
Cl 	 5.648043720859564 	 5.6480437208595635 	 5.648043720859564
Na 	 5.633269888153178 	 5.633269888153178 	 8.504886231362981
Na 	 5.63827301126688 	 8.425747973988504 	 0.03425202601149449
Cl 	 5.621348464432174 	 8.53181847818334 	 2.838651535567827
Na 	 5.633269888153178 	 8.504886231362981 	 5.633269888153178
Cl 	 5.610191840047465 	 8.471332287200594 	 8.471332287200594
Na 	 8.31146024957904 	 0.1485397504209608 	 0.14853975042096007
Cl 	 8.471332287200596 	 -0.01133228720059517 	 2.8498081599525342
Na 	 8.425747973988507 	 0.0342520260114938 	 5.638273011266879
Cl 	 8.37522758772882 	 0.08477241227118154 	 8.37522758772882
Cl 	 8.471332287200596 	 2.8498081599525342 	 -0.01133228720059477
Na 	 8.504886231362983 	 2.8267301118468207 	 2.82673011184682
Cl 	 8.53181847818334 	 2.8386515355678266 	 5.621348464432173
Na 	 8.425747973988505 	 2.82172698873312 	 8.425747973988505
Na 	 8.425747973988507 	 5.638273011266879 	 0.03425202601149402
Cl 	 8.531818478183341 	 5.621348464432173 	 2.8386515355678266
Na 	 8.504886231362981 	 5.63326988815318 	 5.63326988815318
Cl 	 8.471332287200594 	 5.610191840047466 	 8.471332287200594
Cl 	 8.37522758772882 	 8.37522758772882 	 0.08477241227118161
Na 	 8.425747973988505 	 8.425747973988505 	 2.82172698873312
Cl 	 8.471332287200594 	 8.471332287200594 	 5.610191840047467
Na 	 8.311460249579039 	 8.311460249579039 	 8.311460249579039
