27 
 
Xe 0.0860 2.1088 -0.9944 
Xe 0.3155 0.9700 3.5189 
Xe 1.0547 -0.0452 7.8041 
Xe 1.3629 5.1133 2.0979 
Xe -1.0676 4.7089 5.9285 
Xe 1.1108 3.8248 9.9623 
Xe 3.7084 4.9317 -1.7511 
Xe 0.2133 8.9560 3.9992 
Xe 1.0104 7.9785 8.3243 
Xe 4.0162 1.1540 1.0221 
Xe 4.7304 -0.5051 5.2259 
Xe 5.1147 1.5559 9.3254 
Xe 5.7676 4.9650 2.2182 
Xe 3.2073 3.5951 5.8529 
Xe 4.9845 6.0414 9.4122 
Xe 3.8142 8.7888 0.9589 
Xe 4.3641 7.7948 5.3409 
Xe 4.7209 10.5955 8.8453 
Xe 7.7234 2.7809 -1.2261 
Xe 8.1816 1.0809 2.9125 
Xe 8.8902 0.1732 7.3289 
Xe 10.2223 5.0142 2.1342 
Xe 7.5894 4.2670 6.0669 
Xe 8.9529 3.9773 10.2600 
Xe 7.6529 7.3099 -1.1186 
Xe 8.0415 8.8277 3.1424 
Xe 8.4881 8.2933 7.6651 
