64
NaCL starting traj
Na     0.000000     0.000000     0.000000
Cl     0.000000     0.000000     0.282000
Na     0.000000     0.000000     0.564000
Cl     0.000000     0.000000     0.846000
Cl     0.000000     0.282000     0.000000
Na     0.000000     0.282000     0.282000
Cl     0.000000     0.282000     0.564000
Na     0.000000     0.282000     0.846000
Na     0.000000     0.564000     0.000000
Cl     0.000000     0.564000     0.282000
Na     0.000000     0.564000     0.564000
Cl     0.000000     0.564000     0.846000
Cl     0.000000     0.846000     0.000000
Na     0.000000     0.846000     0.282000
Cl     0.000000     0.846000     0.564000
Na     0.000000     0.846000     0.846000
Cl     0.282000     0.000000     0.000000
Na     0.282000     0.000000     0.282000
Cl     0.282000     0.000000     0.564000
Na     0.282000     0.000000     0.846000
Na     0.282000     0.282000     0.000000
Cl     0.282000     0.282000     0.282000
Na     0.282000     0.282000     0.564000
Cl     0.282000     0.282000     0.846000
Cl     0.282000     0.564000     0.000000
Na     0.282000     0.564000     0.282000
Cl     0.282000     0.564000     0.564000
Na     0.282000     0.564000     0.846000
Na     0.282000     0.846000     0.000000
Cl     0.282000     0.846000     0.282000
Na     0.282000     0.846000     0.564000
Cl     0.282000     0.846000     0.846000
Na     0.564000     0.000000     0.000000
Cl     0.564000     0.000000     0.282000
Na     0.564000     0.000000     0.564000
Cl     0.564000     0.000000     0.846000
Cl     0.564000     0.282000     0.000000
Na     0.564000     0.282000     0.282000
Cl     0.564000     0.282000     0.564000
Na     0.564000     0.282000     0.846000
Na     0.564000     0.564000     0.000000
Cl     0.564000     0.564000     0.282000
Na     0.564000     0.564000     0.564000
Cl     0.564000     0.564000     0.846000
Cl     0.564000     0.846000     0.000000
Na     0.564000     0.846000     0.282000
Cl     0.564000     0.846000     0.564000
Na     0.564000     0.846000     0.846000
Cl     0.846000     0.000000     0.000000
Na     0.846000     0.000000     0.282000
Cl     0.846000     0.000000     0.564000
Na     0.846000     0.000000     0.846000
Na     0.846000     0.282000     0.000000
Cl     0.846000     0.282000     0.282000
Na     0.846000     0.282000     0.564000
Cl     0.846000     0.282000     0.846000
Cl     0.846000     0.564000     0.000000
Na     0.846000     0.564000     0.282000
Cl     0.846000     0.564000     0.564000
Na     0.846000     0.564000     0.846000
Na     0.846000     0.846000     0.000000
Cl     0.846000     0.846000     0.282000
Na     0.846000     0.846000     0.564000
Cl     0.846000     0.846000     0.846000
