64
Starting Structure
Na     0.014854     0.014854     0.014854
Cl    -0.001133    -0.001133     0.284981
Na     0.003425     0.003425     0.563827
Cl     0.008477     0.008477     0.837523
Cl    -0.001133     0.284981    -0.001133
Na    -0.004489     0.282673     0.282673
Cl    -0.007182     0.283865     0.562135
Na     0.003425     0.282173     0.842575
Na     0.003425     0.563827     0.003425
Cl    -0.007182     0.562135     0.283865
Na    -0.004489     0.563327     0.563327
Cl    -0.001133     0.561019     0.847133
Cl     0.008477     0.837523     0.008477
Na     0.003425     0.842575     0.282173
Cl    -0.001133     0.847133     0.561019
Na     0.014854     0.831146     0.831146
Cl     0.284981    -0.001133    -0.001133
Na     0.282673    -0.004489     0.282673
Cl     0.283865    -0.007182     0.562135
Na     0.282173     0.003425     0.842575
Na     0.282673     0.282673    -0.004489
Cl     0.281196     0.281196     0.281196
Na     0.280471     0.280471     0.565529
Cl     0.283865     0.283865     0.853182
Cl     0.283865     0.562135    -0.007182
Na     0.280471     0.565529     0.280471
Cl     0.281196     0.564804     0.564804
Na     0.282673     0.563327     0.850489
Na     0.282173     0.842575     0.003425
Cl     0.283865     0.853182     0.283865
Na     0.282673     0.850489     0.563327
Cl     0.284981     0.847133     0.847133
Na     0.563827     0.003425     0.003425
Cl     0.562135    -0.007182     0.283865
Na     0.563327    -0.004489     0.563327
Cl     0.561019    -0.001133     0.847133
Cl     0.562135     0.283865    -0.007182
Na     0.565529     0.280471     0.280471
Cl     0.564804     0.281196     0.564804
Na     0.563327     0.282673     0.850489
Na     0.563327     0.563327    -0.004489
Cl     0.564804     0.564804     0.281196
Na     0.565529     0.565529     0.565529
Cl     0.562135     0.562135     0.853182
Cl     0.561019     0.847133    -0.001133
Na     0.563327     0.850489     0.282673
Cl     0.562135     0.853182     0.562135
Na     0.563827     0.842575     0.842575
Cl     0.837523     0.008477     0.008477
Na     0.842575     0.003425     0.282173
Cl     0.847133    -0.001133     0.561019
Na     0.831146     0.014854     0.831146
Na     0.842575     0.282173     0.003425
Cl     0.853182     0.283865     0.283865
Na     0.850489     0.282673     0.563327
Cl     0.847133     0.284981     0.847133
Cl     0.847133     0.561019    -0.001133
Na     0.850489     0.563327     0.282673
Cl     0.853182     0.562135     0.562135
Na     0.842575     0.563827     0.842575
Na     0.831146     0.831146     0.014854
Cl     0.847133     0.847133     0.284981
Na     0.842575     0.842575     0.563827
Cl     0.837523     0.837523     0.837523
